# generated using pymatgen
data_CdS
_symmetry_space_group_name_H-M   'P 1'
_cell_length_a   4.20080401
_cell_length_b   4.20080401
_cell_length_c   4.20080401
_cell_angle_alpha   60.00000000
_cell_angle_beta   60.00000000
_cell_angle_gamma   60.00000000
_symmetry_Int_Tables_number   1
_chemical_formula_structural   CdS
_chemical_formula_sum   'Cd1 S1'
_cell_volume   52.41821899
_cell_formula_units_Z   1
loop_
 _symmetry_equiv_pos_site_id
 _symmetry_equiv_pos_as_xyz
  1  'x, y, z'
loop_
 _atom_site_type_symbol
 _atom_site_label
 _atom_site_symmetry_multiplicity
 _atom_site_fract_x
 _atom_site_fract_y
 _atom_site_fract_z
 _atom_site_occupancy
  Cd  Cd0  1  0.00000000  0.00000000  0.00000000  1
  S  S1  1  0.75000000  0.75000000  0.75000000  1
